** sch_path: /home/designer/designs/libs/core_chiptop/padring/padring.sch
.subckt padring VDD VSS ui_PAD[0] uo_PAD[0] uo_CORE2PAD[0] ui_CORE2PAD[0] ui_PAD[1] uo_PAD[1] ui_CORE2PAD[1] uo_CORE2PAD[1]
+ ui_PAD[2] uo_CORE2PAD[2] ui_CORE2PAD[2] uo_PAD[2] uo_CORE2PAD[3] uo_PAD[3] ui_CORE2PAD[3] ui_PAD[3] ui_CORE2PAD[4] uo_PAD[4] uo_CORE2PAD[4]
+ ui_PAD[4] ui_CORE2PAD[5] ui_PAD[5] uo_CORE2PAD[5] uo_PAD[5] uo_CORE2PAD[6] ui_CORE2PAD[6] ui_PAD[6] uo_PAD[6] uo_PAD[7] ui_PAD[7]
+ uo_CORE2PAD[7] ui_CORE2PAD[7] uo_CORE2PAD[8] uo_PAD[8] ui_CORE2PAD[8] ui_PAD[8] uo_PAD[9] ui_CORE2PAD[9] ui_PAD[9] uo_CORE2PAD[9]
+ uo_CORE2PAD[10] ui_CORE2PAD[10] ui_PAD[10] uo_PAD[10] ui_PAD[11] uo_PAD[11] ui_CORE2PAD[11] uo_CORE2PAD[11] ui_PAD[12] uo_PAD[12] ui_CORE2PAD[12]
+ uo_CORE2PAD[12] uo_PAD[13] ui_CORE2PAD[13] ui_PAD[13] uo_CORE2PAD[13] uo_PAD[14] ui_CORE2PAD[14] ui_PAD[14] uo_CORE2PAD[14] ui_PAD[15] uo_PAD[15]
+ ui_CORE2PAD[15] uo_CORE2PAD[15] io_clock_p2c io_clock_PAD io_reset_p2c io_reset_PAD analog_io_0_padres analog_io_0 analog_io_1_padres analog_io_1
+ IOVDD
*.PININFO VDD:B ui_PAD[0]:B ui_CORE2PAD[0]:B ui_PAD[1]:B ui_CORE2PAD[1]:B ui_PAD[2]:B ui_CORE2PAD[2]:B ui_PAD[3]:B
*+ ui_CORE2PAD[3]:B ui_PAD[4]:B ui_CORE2PAD[4]:B ui_PAD[5]:B ui_CORE2PAD[5]:B ui_PAD[6]:B ui_CORE2PAD[6]:B ui_PAD[7]:B ui_CORE2PAD[7]:B ui_PAD[8]:B
*+ ui_CORE2PAD[8]:B ui_PAD[9]:B ui_CORE2PAD[9]:B ui_PAD[10]:B ui_CORE2PAD[10]:B ui_PAD[11]:B ui_CORE2PAD[11]:B ui_PAD[12]:B ui_CORE2PAD[12]:B
*+ ui_PAD[13]:B ui_CORE2PAD[13]:B ui_PAD[14]:B ui_CORE2PAD[14]:B ui_PAD[15]:B ui_CORE2PAD[15]:B uo_PAD[0]:B uo_CORE2PAD[0]:B uo_PAD[1]:B
*+ uo_CORE2PAD[1]:B uo_PAD[2]:B uo_CORE2PAD[2]:B uo_PAD[3]:B uo_CORE2PAD[3]:B uo_PAD[4]:B uo_CORE2PAD[4]:B uo_PAD[5]:B uo_CORE2PAD[5]:B uo_PAD[6]:B
*+ uo_CORE2PAD[6]:B uo_PAD[7]:B uo_CORE2PAD[7]:B uo_PAD[8]:B uo_CORE2PAD[8]:B uo_PAD[9]:B uo_CORE2PAD[9]:B uo_PAD[10]:B uo_CORE2PAD[10]:B
*+ uo_PAD[11]:B uo_CORE2PAD[11]:B uo_PAD[12]:B uo_CORE2PAD[12]:B uo_PAD[13]:B uo_CORE2PAD[13]:B uo_PAD[14]:B uo_CORE2PAD[14]:B uo_PAD[15]:B
*+ uo_CORE2PAD[15]:B io_clock_PAD:B io_clock_p2c:B io_reset_PAD:B io_reset_p2c:B analog_io_0:B analog_io_0_padres:B analog_io_1:B analog_io_1_padres:B
*+ VSS:B IOVDD:B
Xsg13g2_IOPadVdd_west IOVDD VSS VSS VDD sg13g2_IOPadVdd
Xsg13g2_IOPadVss_west IOVDD VSS VSS VDD sg13g2_IOPadVSS
Xsg13g2_IOPadIn_ui[0] IOVDD VSS ui_CORE2PAD[0] VSS VDD ui_PAD[0] sg13g2_IOPadIn
Xsg13g2_IOPadIn_ui[1] IOVDD VSS ui_CORE2PAD[1] VSS VDD ui_PAD[1] sg13g2_IOPadIn
Xsg13g2_IOPadIn_ui[2] IOVDD VSS ui_CORE2PAD[2] VSS VDD ui_PAD[2] sg13g2_IOPadIn
Xsg13g2_IOPadIn_ui[3] IOVDD VSS ui_CORE2PAD[3] VSS VDD ui_PAD[3] sg13g2_IOPadIn
Xsg13g2_IOPadIn_ui[4] IOVDD VSS ui_CORE2PAD[4] VSS VDD ui_PAD[4] sg13g2_IOPadIn
Xsg13g2_IOPadIn_ui[5] IOVDD VSS ui_CORE2PAD[5] VSS VDD ui_PAD[5] sg13g2_IOPadIn
Xsg13g2_IOPadIn_ui[6] IOVDD VSS ui_CORE2PAD[6] VSS VDD ui_PAD[6] sg13g2_IOPadIn
Xsg13g2_IOPadIn_ui[7] IOVDD VSS ui_CORE2PAD[7] VSS VDD ui_PAD[7] sg13g2_IOPadIn
Xsg13g2_IOPadIOVdd_west IOVDD VSS VSS VDD sg13g2_IOPadIOVdd
Xsg13g2_IOPadIOVss_west IOVDD VSS VSS VDD sg13g2_IOPadIOVss
Xsg13g2_IOPadVdd_south IOVDD VSS VSS VDD sg13g2_IOPadVdd
Xsg13g2_IOPadVss_south IOVDD VSS VSS VDD sg13g2_IOPadVSS
Xsg13g2_IOPadIn_ui[9] IOVDD VSS ui_CORE2PAD[9] VSS VDD ui_PAD[9] sg13g2_IOPadIn
Xsg13g2_IOPadIn_ui[10] IOVDD VSS ui_CORE2PAD[10] VSS VDD ui_PAD[10] sg13g2_IOPadIn
Xsg13g2_IOPadIn_ui[11] IOVDD VSS ui_CORE2PAD[11] VSS VDD ui_PAD[11] sg13g2_IOPadIn
Xsg13g2_IOPadIn_ui[12] IOVDD VSS ui_CORE2PAD[12] VSS VDD ui_PAD[12] sg13g2_IOPadIn
Xsg13g2_IOPadIn_ui[13] IOVDD VSS ui_CORE2PAD[13] VSS VDD ui_PAD[13] sg13g2_IOPadIn
Xsg13g2_IOPadIn_ui[14] IOVDD VSS ui_CORE2PAD[14] VSS VDD ui_PAD[14] sg13g2_IOPadIn
Xsg13g2_IOPadIn_ui[15] IOVDD VSS ui_CORE2PAD[15] VSS VDD ui_PAD[15] sg13g2_IOPadIn
Xsg13g2_IOPadIOVdd_south IOVDD VSS VSS VDD sg13g2_IOPadIOVdd
Xsg13g2_IOPadIOVss_south IOVDD VSS VSS VDD sg13g2_IOPadIOVss
Xsg13g2_IOPadIn_ui[8] IOVDD VSS ui_CORE2PAD[8] VSS VDD ui_PAD[8] sg13g2_IOPadIn
Xsg13g2_IOPad_analog_io_0 IOVDD VSS analog_io_0_padres VSS VDD analog_io_0 sg13g2_IOPadAnalog
Xsg13g2_IOPad_io_clock IOVDD VSS io_clock_p2c VSS VDD io_clock_PAD sg13g2_IOPadIn
Xsg13g2_IOPadVdd_east IOVDD VSS VSS VDD sg13g2_IOPadVdd
Xsg13g2_IOPadVss_east IOVDD VSS VSS VDD sg13g2_IOPadVSS
Xsg13g2_IOPadOut30mA_uo[0] IOVDD VSS uo_CORE2PAD[0] VSS VDD uo_PAD[0] sg13g2_IOPadOut30mA
Xsg13g2_IOPadOut30mA_uo[1] IOVDD VSS uo_CORE2PAD[1] VSS VDD uo_PAD[1] sg13g2_IOPadOut30mA
Xsg13g2_IOPadOut30mA_uo[2] IOVDD VSS uo_CORE2PAD[2] VSS VDD uo_PAD[2] sg13g2_IOPadOut30mA
Xsg13g2_IOPadOut30mA_uo[3] IOVDD VSS uo_CORE2PAD[3] VSS VDD uo_PAD[3] sg13g2_IOPadOut30mA
Xsg13g2_IOPadOut30mA_uo[4] IOVDD VSS uo_CORE2PAD[4] VSS VDD uo_PAD[4] sg13g2_IOPadOut30mA
Xsg13g2_IOPadOut30mA_uo[5] IOVDD VSS uo_CORE2PAD[5] VSS VDD uo_PAD[5] sg13g2_IOPadOut30mA
Xsg13g2_IOPadOut30mA_uo[6] IOVDD VSS uo_CORE2PAD[6] VSS VDD uo_PAD[6] sg13g2_IOPadOut30mA
Xsg13g2_IOPadOut30mA_uo[7] IOVDD VSS uo_CORE2PAD[7] VSS VDD uo_PAD[7] sg13g2_IOPadOut30mA
Xsg13g2_IOPadIOVdd_east IOVDD VSS VSS VDD sg13g2_IOPadIOVdd
Xsg13g2_IOPadIOVss_east IOVDD VSS VSS VDD sg13g2_IOPadIOVss
Xsg13g2_IOPadOut30mA_uo[8] IOVDD VSS uo_CORE2PAD[8] VSS VDD uo_PAD[8] sg13g2_IOPadOut30mA
Xsg13g2_IOPadVdd_north IOVDD VSS VSS VDD sg13g2_IOPadVdd
Xsg13g2_IOPadVss_north IOVDD VSS VSS VDD sg13g2_IOPadVSS
Xsg13g2_IOPadOut30mA_uo[9] IOVDD VSS uo_CORE2PAD[9] VSS VDD uo_PAD[9] sg13g2_IOPadOut30mA
Xsg13g2_IOPadOut30mA_uo[10] IOVDD VSS uo_CORE2PAD[10] VSS VDD uo_PAD[10] sg13g2_IOPadOut30mA
Xsg13g2_IOPadOut30mA_uo[11] IOVDD VSS uo_CORE2PAD[11] VSS VDD uo_PAD[11] sg13g2_IOPadOut30mA
Xsg13g2_IOPadOut30mA_uo[12] IOVDD VSS uo_CORE2PAD[12] VSS VDD uo_PAD[12] sg13g2_IOPadOut30mA
Xsg13g2_IOPadOut30mA_uo[13] IOVDD VSS uo_CORE2PAD[13] VSS VDD uo_PAD[13] sg13g2_IOPadOut30mA
Xsg13g2_IOPadOut30mA_uo[14] IOVDD VSS uo_CORE2PAD[14] VSS VDD uo_PAD[14] sg13g2_IOPadOut30mA
Xsg13g2_IOPadOut30mA_uo[15] IOVDD VSS uo_CORE2PAD[15] VSS VDD uo_PAD[15] sg13g2_IOPadOut30mA
Xsg13g2_IOPad_analog_io_1 IOVDD VSS analog_io_1_padres VSS VDD analog_io_1 sg13g2_IOPadAnalog
Xsg13g2_IOPadIOVdd_north IOVDD VSS VSS VDD sg13g2_IOPadIOVdd
Xsg13g2_IOPadIOVss_north IOVDD VSS VSS VDD sg13g2_IOPadIOVss
Xsg13g2_IOPad_io_reset IOVDD VSS io_reset_p2c VSS VDD io_reset_PAD sg13g2_IOPadIn
.ends

* expanding   symbol:  sg13g2_io/xschem/sg13g2_IOPadVdd.sym # of pins=4
** sym_path: /home/designer/designs/libs/sg13g2_io/xschem/sg13g2_IOPadVdd.sym
** sch_path: /home/designer/designs/libs/sg13g2_io/xschem/sg13g2_IOPadVdd.sch
.subckt sg13g2_IOPadVdd iovdd iovss vss vdd
*.PININFO vdd:B iovdd:B vss:B iovss:B
x6 net2 vdd vss sg13g2_RCClampResistor
x1 vdd net1 net2 vss sg13g2_RCClampInverter
x1 vdd iovdd net1 iovss sg13g2_Clamp_N43N43D4R
.ends


* expanding   symbol:  sg13g2_io/xschem/sg13g2_IOPadVSS.sym # of pins=4
** sym_path: /home/designer/designs/libs/sg13g2_io/xschem/sg13g2_IOPadVSS.sym
** sch_path: /home/designer/designs/libs/sg13g2_io/xschem/sg13g2_IOPadVSS.sch
.subckt sg13g2_IOPadVSS iovdd iovss vss vdd
*.PININFO iovss:B iovdd:B vss:B vdd:B
x1 vss iovss iovdd sg13g2_DCNDiode
x2 iovdd vss iovss sg13g2_DCPDiode
* noconn vdd
.ends


* expanding   symbol:  sg13g2_io/xschem/sg13g2_IOPadIn.sym # of pins=6
** sym_path: /home/designer/designs/libs/sg13g2_io/xschem/sg13g2_IOPadIn.sym
** sch_path: /home/designer/designs/libs/sg13g2_io/xschem/sg13g2_IOPadIn.sch
.subckt sg13g2_IOPadIn iovdd iovss p2c vss vdd pad
*.PININFO iovdd:B vdd:B vss:B iovss:B p2c:B pad:B
x1 pad iovss iovdd sg13g2_DCNDiode
x2 iovdd pad iovss sg13g2_DCPDiode
x3 vdd iovdd p2c pad iovss vss sg13g2_LevelDown
.ends


* expanding   symbol:  sg13g2_io/xschem/sg13g2_IOPadIOVdd.sym # of pins=4
** sym_path: /home/designer/designs/libs/sg13g2_io/xschem/sg13g2_IOPadIOVdd.sym
** sch_path: /home/designer/designs/libs/sg13g2_io/xschem/sg13g2_IOPadIOVdd.sch
.subckt sg13g2_IOPadIOVdd iovdd iovss vss vdd
*.PININFO iovss:B iovdd:B vss:B vdd:B
x1 iovdd iovdd net1 iovss sg13g2_Clamp_N43N43D4R
x1 net2 iovdd vss sg13g2_RCClampResistor
x2 iovdd net1 net2 iovss sg13g2_RCClampInverter
.ends


* expanding   symbol:  sg13g2_io/xschem/sg13g2_IOPadIOVss.sym # of pins=4
** sym_path: /home/designer/designs/libs/sg13g2_io/xschem/sg13g2_IOPadIOVss.sym
** sch_path: /home/designer/designs/libs/sg13g2_io/xschem/sg13g2_IOPadIOVss.sch
.subckt sg13g2_IOPadIOVss iovdd iovss vss vdd
*.PININFO iovss:B iovdd:B vdd:B vss:B
x8 iovss iovss iovdd sg13g2_DCNDiode
x9 iovdd iovss iovss sg13g2_DCPDiode
* noconn vdd
* noconn vss
.ends


* expanding   symbol:  sg13g2_io/xschem/sg13g2_IOPadAnalog.sym # of pins=6
** sym_path: /home/designer/designs/libs/sg13g2_io/xschem/sg13g2_IOPadAnalog.sym
** sch_path: /home/designer/designs/libs/sg13g2_io/xschem/sg13g2_IOPadAnalog.sch
.subckt sg13g2_IOPadAnalog iovdd iovss padres vss vdd pad
*.PININFO padres:B iovss:B iovdd:B pad:B vdd:B vss:B
x3 pad iovss iovdd sg13g2_DCNDiode
x4 iovdd pad iovss sg13g2_DCPDiode
x1 pad iovdd iovss sg13g2_Clamp_N20N0D
x2 iovdd pad iovss sg13g2_Clamp_P20N0D
x5 iovdd pad padres iovss sg13g2_SecondaryProtection
.ends


* expanding   symbol:  sg13g2_io/xschem/sg13g2_IOPadOut30mA.sym # of pins=6
** sym_path: /home/designer/designs/libs/sg13g2_io/xschem/sg13g2_IOPadOut30mA.sym
** sch_path: /home/designer/designs/libs/sg13g2_io/xschem/sg13g2_IOPadOut30mA.sch
.subckt sg13g2_IOPadOut30mA iovdd iovss c2p vss vdd pad
*.PININFO iovss:B pad:B vss:B c2p:B vdd:B iovdd:B
x1 iovdd pad net2 iovss sg13g2_Clamp_N15N15D
x2 iovdd net1 pad iovss sg13g2_Clamp_P15N15D
x8 pad iovss iovdd sg13g2_DCNDiode
x9 iovdd pad iovss sg13g2_DCPDiode
x10 vdd iovdd net2 net1 c2p vss sg13g2_GateLevelUpInv
.ends


* expanding   symbol:  sg13g2_RCClampResistor.sym # of pins=3
** sym_path: /home/designer/designs/libs/sg13g2_io/xschem/sg13g2_RCClampResistor.sym
** sch_path: /home/designer/designs/libs/sg13g2_io/xschem/sg13g2_RCClampResistor.sch
.subckt sg13g2_RCClampResistor pin2 pin1 sub
*.PININFO pin1:B pin2:B sub:B
XR1 pin1 net1 sub rppd w=1.0e-6 l=20.0e-6 m=1 b=0
XR2 net1 net2 sub rppd w=1.0e-6 l=20.0e-6 m=1 b=0
XR3 net2 net3 sub rppd w=1.0e-6 l=20.0e-6 m=1 b=0
XR4 net3 net4 sub rppd w=1.0e-6 l=20.0e-6 m=1 b=0
XR5 net7 net8 sub rppd w=1.0e-6 l=20.0e-6 m=1 b=0
XR6 net6 net7 sub rppd w=1.0e-6 l=20.0e-6 m=1 b=0
XR7 net5 net6 sub rppd w=1.0e-6 l=20.0e-6 m=1 b=0
XR8 net4 net5 sub rppd w=1.0e-6 l=20.0e-6 m=1 b=0
XR9 net8 net9 sub rppd w=1.0e-6 l=20.0e-6 m=1 b=0
XR10 net9 net10 sub rppd w=1.0e-6 l=20.0e-6 m=1 b=0
XR11 net10 net11 sub rppd w=1.0e-6 l=20.0e-6 m=1 b=0
XR12 net11 net12 sub rppd w=1.0e-6 l=20.0e-6 m=1 b=0
XR13 net15 net16 sub rppd w=1.0e-6 l=20.0e-6 m=1 b=0
XR14 net14 net15 sub rppd w=1.0e-6 l=20.0e-6 m=1 b=0
XR15 net13 net14 sub rppd w=1.0e-6 l=20.0e-6 m=1 b=0
XR16 net12 net13 sub rppd w=1.0e-6 l=20.0e-6 m=1 b=0
XR17 net16 net17 sub rppd w=1.0e-6 l=20.0e-6 m=1 b=0
XR18 net17 net18 sub rppd w=1.0e-6 l=20.0e-6 m=1 b=0
XR19 net18 net19 sub rppd w=1.0e-6 l=20.0e-6 m=1 b=0
XR20 net19 net20 sub rppd w=1.0e-6 l=20.0e-6 m=1 b=0
XR21 net23 net24 sub rppd w=1.0e-6 l=20.0e-6 m=1 b=0
XR22 net22 net23 sub rppd w=1.0e-6 l=20.0e-6 m=1 b=0
XR23 net21 net22 sub rppd w=1.0e-6 l=20.0e-6 m=1 b=0
XR24 net20 net21 sub rppd w=1.0e-6 l=20.0e-6 m=1 b=0
XR25 net24 net25 sub rppd w=1.0e-6 l=20.0e-6 m=1 b=0
XR26 net25 pin2 sub rppd w=1.0e-6 l=20.0e-6 m=1 b=0
* noconn sub
.ends


* expanding   symbol:  sg13g2_RCClampInverter.sym # of pins=4
** sym_path: /home/designer/designs/libs/sg13g2_io/xschem/sg13g2_RCClampInverter.sym
** sch_path: /home/designer/designs/libs/sg13g2_io/xschem/sg13g2_RCClampInverter.sch
.subckt sg13g2_RCClampInverter supply out in ground
*.PININFO supply:B ground:B out:O in:I
XM1 ground in ground ground sg13_hv_nmos w=9.0u l=9.5u ng=1 m=1
XM2 ground in ground ground sg13_hv_nmos w=9.0u l=9.5u ng=1 m=1
XM3 ground in ground ground sg13_hv_nmos w=9.0u l=9.5u ng=1 m=1
XM4 ground in ground ground sg13_hv_nmos w=9.0u l=9.5u ng=1 m=1
XM5 ground in ground ground sg13_hv_nmos w=9.0u l=9.5u ng=1 m=1
XM6 ground in ground ground sg13_hv_nmos w=9.0u l=9.5u ng=1 m=1
XM7 ground in ground ground sg13_hv_nmos w=9.0u l=9.5u ng=1 m=1
XM8 ground in ground ground sg13_hv_nmos w=9.0u l=9.5u ng=1 m=1
XM9 ground in ground ground sg13_hv_nmos w=9.0u l=9.5u ng=1 m=1
XM10 ground in ground ground sg13_hv_nmos w=9.0u l=9.5u ng=1 m=1
XM11 ground in ground ground sg13_hv_nmos w=9.0u l=9.5u ng=1 m=1
XM12 ground in ground ground sg13_hv_nmos w=9.0u l=9.5u ng=1 m=1
XM13 ground in ground ground sg13_hv_nmos w=9.0u l=9.5u ng=1 m=1
XM14 ground in ground ground sg13_hv_nmos w=9.0u l=9.5u ng=1 m=1
XM15 out in ground ground sg13_hv_nmos w=9.0u l=0.5u ng=1 m=1
XM16 out in ground ground sg13_hv_nmos w=9.0u l=0.5u ng=1 m=1
XM17 out in ground ground sg13_hv_nmos w=9.0u l=0.5u ng=1 m=1
XM18 out in ground ground sg13_hv_nmos w=9.0u l=0.5u ng=1 m=1
XM19 out in ground ground sg13_hv_nmos w=9.0u l=0.5u ng=1 m=1
XM20 out in ground ground sg13_hv_nmos w=9.0u l=0.5u ng=1 m=1
XM21 out in ground ground sg13_hv_nmos w=9.0u l=0.5u ng=1 m=1
XM22 out in ground ground sg13_hv_nmos w=9.0u l=0.5u ng=1 m=1
XM23 out in ground ground sg13_hv_nmos w=9.0u l=0.5u ng=1 m=1
XM24 out in ground ground sg13_hv_nmos w=9.0u l=0.5u ng=1 m=1
XM25 out in ground ground sg13_hv_nmos w=9.0u l=0.5u ng=1 m=1
XM26 out in ground ground sg13_hv_nmos w=9.0u l=0.5u ng=1 m=1
XM27 out in supply supply sg13_hv_pmos w=7.0u l=0.5u ng=1 m=1
XM28 out in supply supply sg13_hv_pmos w=7.0u l=0.5u ng=1 m=1
XM29 out in supply supply sg13_hv_pmos w=7.0u l=0.5u ng=1 m=1
XM30 out in supply supply sg13_hv_pmos w=7.0u l=0.5u ng=1 m=1
XM31 out in supply supply sg13_hv_pmos w=7.0u l=0.5u ng=1 m=1
XM32 out in supply supply sg13_hv_pmos w=7.0u l=0.5u ng=1 m=1
XM33 out in supply supply sg13_hv_pmos w=7.0u l=0.5u ng=1 m=1
XM34 out in supply supply sg13_hv_pmos w=7.0u l=0.5u ng=1 m=1
XM35 out in supply supply sg13_hv_pmos w=7.0u l=0.5u ng=1 m=1
XM36 out in supply supply sg13_hv_pmos w=7.0u l=0.5u ng=1 m=1
XM37 out in supply supply sg13_hv_pmos w=7.0u l=0.5u ng=1 m=1
XM38 out in supply supply sg13_hv_pmos w=7.0u l=0.5u ng=1 m=1
XM39 out in supply supply sg13_hv_pmos w=7.0u l=0.5u ng=1 m=1
XM40 out in supply supply sg13_hv_pmos w=7.0u l=0.5u ng=1 m=1
XM41 out in supply supply sg13_hv_pmos w=7.0u l=0.5u ng=1 m=1
XM42 out in supply supply sg13_hv_pmos w=7.0u l=0.5u ng=1 m=1
XM43 out in supply supply sg13_hv_pmos w=7.0u l=0.5u ng=1 m=1
XM44 out in supply supply sg13_hv_pmos w=7.0u l=0.5u ng=1 m=1
XM45 out in supply supply sg13_hv_pmos w=7.0u l=0.5u ng=1 m=1
XM46 out in supply supply sg13_hv_pmos w=7.0u l=0.5u ng=1 m=1
XM47 out in supply supply sg13_hv_pmos w=7.0u l=0.5u ng=1 m=1
XM48 out in supply supply sg13_hv_pmos w=7.0u l=0.5u ng=1 m=1
XM49 out in supply supply sg13_hv_pmos w=7.0u l=0.5u ng=1 m=1
XM50 out in supply supply sg13_hv_pmos w=7.0u l=0.5u ng=1 m=1
XM51 out in supply supply sg13_hv_pmos w=7.0u l=0.5u ng=1 m=1
XM52 out in supply supply sg13_hv_pmos w=7.0u l=0.5u ng=1 m=1
XM53 out in supply supply sg13_hv_pmos w=7.0u l=0.5u ng=1 m=1
XM54 out in supply supply sg13_hv_pmos w=7.0u l=0.5u ng=1 m=1
XM55 out in supply supply sg13_hv_pmos w=7.0u l=0.5u ng=1 m=1
XM56 out in supply supply sg13_hv_pmos w=7.0u l=0.5u ng=1 m=1
XM57 out in supply supply sg13_hv_pmos w=7.0u l=0.5u ng=1 m=1
XM58 out in supply supply sg13_hv_pmos w=7.0u l=0.5u ng=1 m=1
XM59 out in supply supply sg13_hv_pmos w=7.0u l=0.5u ng=1 m=1
XM60 out in supply supply sg13_hv_pmos w=7.0u l=0.5u ng=1 m=1
XM61 out in supply supply sg13_hv_pmos w=7.0u l=0.5u ng=1 m=1
XM62 out in supply supply sg13_hv_pmos w=7.0u l=0.5u ng=1 m=1
XM63 out in supply supply sg13_hv_pmos w=7.0u l=0.5u ng=1 m=1
XM64 out in supply supply sg13_hv_pmos w=7.0u l=0.5u ng=1 m=1
XM65 out in supply supply sg13_hv_pmos w=7.0u l=0.5u ng=1 m=1
XM66 out in supply supply sg13_hv_pmos w=7.0u l=0.5u ng=1 m=1
XM67 out in supply supply sg13_hv_pmos w=7.0u l=0.5u ng=1 m=1
XM68 out in supply supply sg13_hv_pmos w=7.0u l=0.5u ng=1 m=1
XM69 out in supply supply sg13_hv_pmos w=7.0u l=0.5u ng=1 m=1
XM70 out in supply supply sg13_hv_pmos w=7.0u l=0.5u ng=1 m=1
XM71 out in supply supply sg13_hv_pmos w=7.0u l=0.5u ng=1 m=1
XM72 out in supply supply sg13_hv_pmos w=7.0u l=0.5u ng=1 m=1
XM73 out in supply supply sg13_hv_pmos w=7.0u l=0.5u ng=1 m=1
XM74 out in supply supply sg13_hv_pmos w=7.0u l=0.5u ng=1 m=1
XM75 out in supply supply sg13_hv_pmos w=7.0u l=0.5u ng=1 m=1
XM76 out in supply supply sg13_hv_pmos w=7.0u l=0.5u ng=1 m=1
.ends


* expanding   symbol:  sg13g2_Clamp_N43N43D4R.sym # of pins=4
** sym_path: /home/designer/designs/libs/sg13g2_io/xschem/sg13g2_Clamp_N43N43D4R.sym
** sch_path: /home/designer/designs/libs/sg13g2_io/xschem/sg13g2_Clamp_N43N43D4R.sch
.subckt sg13g2_Clamp_N43N43D4R pad iovdd gate iovss
*.PININFO pad:B iovss:B gate:B iovdd:B
XM1 iovss gate pad iovss sg13_hv_nmos w=4.4u l=0.6u ng=1 m=1
XM2 iovss gate pad iovss sg13_hv_nmos w=4.4u l=0.6u ng=1 m=1
XM3 iovss gate pad iovss sg13_hv_nmos w=4.4u l=0.6u ng=1 m=1
XM4 iovss gate pad iovss sg13_hv_nmos w=4.4u l=0.6u ng=1 m=1
XM5 iovss gate pad iovss sg13_hv_nmos w=4.4u l=0.6u ng=1 m=1
XM6 iovss gate pad iovss sg13_hv_nmos w=4.4u l=0.6u ng=1 m=1
XM7 iovss gate pad iovss sg13_hv_nmos w=4.4u l=0.6u ng=1 m=1
XM8 iovss gate pad iovss sg13_hv_nmos w=4.4u l=0.6u ng=1 m=1
XM9 iovss gate pad iovss sg13_hv_nmos w=4.4u l=0.6u ng=1 m=1
XM10 iovss gate pad iovss sg13_hv_nmos w=4.4u l=0.6u ng=1 m=1
XM11 iovss gate pad iovss sg13_hv_nmos w=4.4u l=0.6u ng=1 m=1
XM12 iovss gate pad iovss sg13_hv_nmos w=4.4u l=0.6u ng=1 m=1
XM13 iovss gate pad iovss sg13_hv_nmos w=4.4u l=0.6u ng=1 m=1
XM14 iovss gate pad iovss sg13_hv_nmos w=4.4u l=0.6u ng=1 m=1
XM15 iovss gate pad iovss sg13_hv_nmos w=4.4u l=0.6u ng=1 m=1
XM16 iovss gate pad iovss sg13_hv_nmos w=4.4u l=0.6u ng=1 m=1
XM17 iovss gate pad iovss sg13_hv_nmos w=4.4u l=0.6u ng=1 m=1
XM18 iovss gate pad iovss sg13_hv_nmos w=4.4u l=0.6u ng=1 m=1
XM19 iovss gate pad iovss sg13_hv_nmos w=4.4u l=0.6u ng=1 m=1
XM20 iovss gate pad iovss sg13_hv_nmos w=4.4u l=0.6u ng=1 m=1
XM21 iovss gate pad iovss sg13_hv_nmos w=4.4u l=0.6u ng=1 m=1
XM22 iovss gate pad iovss sg13_hv_nmos w=4.4u l=0.6u ng=1 m=1
XM23 iovss gate pad iovss sg13_hv_nmos w=4.4u l=0.6u ng=1 m=1
XM24 iovss gate pad iovss sg13_hv_nmos w=4.4u l=0.6u ng=1 m=1
XM25 iovss gate pad iovss sg13_hv_nmos w=4.4u l=0.6u ng=1 m=1
XM26 iovss gate pad iovss sg13_hv_nmos w=4.4u l=0.6u ng=1 m=1
XM27 iovss gate pad iovss sg13_hv_nmos w=4.4u l=0.6u ng=1 m=1
XM28 iovss gate pad iovss sg13_hv_nmos w=4.4u l=0.6u ng=1 m=1
XM29 iovss gate pad iovss sg13_hv_nmos w=4.4u l=0.6u ng=1 m=1
XM30 iovss gate pad iovss sg13_hv_nmos w=4.4u l=0.6u ng=1 m=1
XM31 iovss gate pad iovss sg13_hv_nmos w=4.4u l=0.6u ng=1 m=1
XM32 iovss gate pad iovss sg13_hv_nmos w=4.4u l=0.6u ng=1 m=1
XM33 iovss gate pad iovss sg13_hv_nmos w=4.4u l=0.6u ng=1 m=1
XM34 iovss gate pad iovss sg13_hv_nmos w=4.4u l=0.6u ng=1 m=1
XM35 iovss gate pad iovss sg13_hv_nmos w=4.4u l=0.6u ng=1 m=1
XM36 iovss gate pad iovss sg13_hv_nmos w=4.4u l=0.6u ng=1 m=1
XM37 iovss gate pad iovss sg13_hv_nmos w=4.4u l=0.6u ng=1 m=1
XM38 iovss gate pad iovss sg13_hv_nmos w=4.4u l=0.6u ng=1 m=1
XM39 iovss gate pad iovss sg13_hv_nmos w=4.4u l=0.6u ng=1 m=1
XM40 iovss gate pad iovss sg13_hv_nmos w=4.4u l=0.6u ng=1 m=1
XM41 iovss gate pad iovss sg13_hv_nmos w=4.4u l=0.6u ng=1 m=1
XM42 iovss gate pad iovss sg13_hv_nmos w=4.4u l=0.6u ng=1 m=1
XM43 iovss gate pad iovss sg13_hv_nmos w=4.4u l=0.6u ng=1 m=1
XM44 iovss gate pad iovss sg13_hv_nmos w=4.4u l=0.6u ng=1 m=1
XM45 iovss gate pad iovss sg13_hv_nmos w=4.4u l=0.6u ng=1 m=1
XM46 iovss gate pad iovss sg13_hv_nmos w=4.4u l=0.6u ng=1 m=1
XM47 iovss gate pad iovss sg13_hv_nmos w=4.4u l=0.6u ng=1 m=1
XM48 iovss gate pad iovss sg13_hv_nmos w=4.4u l=0.6u ng=1 m=1
XM49 iovss gate pad iovss sg13_hv_nmos w=4.4u l=0.6u ng=1 m=1
XM50 iovss gate pad iovss sg13_hv_nmos w=4.4u l=0.6u ng=1 m=1
XM51 iovss gate pad iovss sg13_hv_nmos w=4.4u l=0.6u ng=1 m=1
XM52 iovss gate pad iovss sg13_hv_nmos w=4.4u l=0.6u ng=1 m=1
XM53 iovss gate pad iovss sg13_hv_nmos w=4.4u l=0.6u ng=1 m=1
XM54 iovss gate pad iovss sg13_hv_nmos w=4.4u l=0.6u ng=1 m=1
XM55 iovss gate pad iovss sg13_hv_nmos w=4.4u l=0.6u ng=1 m=1
XM56 iovss gate pad iovss sg13_hv_nmos w=4.4u l=0.6u ng=1 m=1
XM57 iovss gate pad iovss sg13_hv_nmos w=4.4u l=0.6u ng=1 m=1
XM58 iovss gate pad iovss sg13_hv_nmos w=4.4u l=0.6u ng=1 m=1
XM59 iovss gate pad iovss sg13_hv_nmos w=4.4u l=0.6u ng=1 m=1
XM60 iovss gate pad iovss sg13_hv_nmos w=4.4u l=0.6u ng=1 m=1
XM61 iovss gate pad iovss sg13_hv_nmos w=4.4u l=0.6u ng=1 m=1
XM62 iovss gate pad iovss sg13_hv_nmos w=4.4u l=0.6u ng=1 m=1
XM63 iovss gate pad iovss sg13_hv_nmos w=4.4u l=0.6u ng=1 m=1
XM64 iovss gate pad iovss sg13_hv_nmos w=4.4u l=0.6u ng=1 m=1
XM65 iovss gate pad iovss sg13_hv_nmos w=4.4u l=0.6u ng=1 m=1
XM66 iovss gate pad iovss sg13_hv_nmos w=4.4u l=0.6u ng=1 m=1
XM67 iovss gate pad iovss sg13_hv_nmos w=4.4u l=0.6u ng=1 m=1
XM68 iovss gate pad iovss sg13_hv_nmos w=4.4u l=0.6u ng=1 m=1
XM69 iovss gate pad iovss sg13_hv_nmos w=4.4u l=0.6u ng=1 m=1
XM70 iovss gate pad iovss sg13_hv_nmos w=4.4u l=0.6u ng=1 m=1
XM71 iovss gate pad iovss sg13_hv_nmos w=4.4u l=0.6u ng=1 m=1
XM72 iovss gate pad iovss sg13_hv_nmos w=4.4u l=0.6u ng=1 m=1
XM73 iovss gate pad iovss sg13_hv_nmos w=4.4u l=0.6u ng=1 m=1
XM74 iovss gate pad iovss sg13_hv_nmos w=4.4u l=0.6u ng=1 m=1
XM75 iovss gate pad iovss sg13_hv_nmos w=4.4u l=0.6u ng=1 m=1
XM76 iovss gate pad iovss sg13_hv_nmos w=4.4u l=0.6u ng=1 m=1
XM77 iovss gate pad iovss sg13_hv_nmos w=4.4u l=0.6u ng=1 m=1
XM78 iovss gate pad iovss sg13_hv_nmos w=4.4u l=0.6u ng=1 m=1
XM79 iovss gate pad iovss sg13_hv_nmos w=4.4u l=0.6u ng=1 m=1
XM80 iovss gate pad iovss sg13_hv_nmos w=4.4u l=0.6u ng=1 m=1
XM81 iovss gate pad iovss sg13_hv_nmos w=4.4u l=0.6u ng=1 m=1
XM82 iovss gate pad iovss sg13_hv_nmos w=4.4u l=0.6u ng=1 m=1
XM83 iovss gate pad iovss sg13_hv_nmos w=4.4u l=0.6u ng=1 m=1
XM84 iovss gate pad iovss sg13_hv_nmos w=4.4u l=0.6u ng=1 m=1
XM85 iovss gate pad iovss sg13_hv_nmos w=4.4u l=0.6u ng=1 m=1
XM86 iovss gate pad iovss sg13_hv_nmos w=4.4u l=0.6u ng=1 m=1
XM87 iovss gate pad iovss sg13_hv_nmos w=4.4u l=0.6u ng=1 m=1
XM88 iovss gate pad iovss sg13_hv_nmos w=4.4u l=0.6u ng=1 m=1
XM89 iovss gate pad iovss sg13_hv_nmos w=4.4u l=0.6u ng=1 m=1
XM90 iovss gate pad iovss sg13_hv_nmos w=4.4u l=0.6u ng=1 m=1
XM91 iovss gate pad iovss sg13_hv_nmos w=4.4u l=0.6u ng=1 m=1
XM92 iovss gate pad iovss sg13_hv_nmos w=4.4u l=0.6u ng=1 m=1
XM93 iovss gate pad iovss sg13_hv_nmos w=4.4u l=0.6u ng=1 m=1
XM94 iovss gate pad iovss sg13_hv_nmos w=4.4u l=0.6u ng=1 m=1
XM95 iovss gate pad iovss sg13_hv_nmos w=4.4u l=0.6u ng=1 m=1
XM96 iovss gate pad iovss sg13_hv_nmos w=4.4u l=0.6u ng=1 m=1
XM97 iovss gate pad iovss sg13_hv_nmos w=4.4u l=0.6u ng=1 m=1
XM98 iovss gate pad iovss sg13_hv_nmos w=4.4u l=0.6u ng=1 m=1
XM99 iovss gate pad iovss sg13_hv_nmos w=4.4u l=0.6u ng=1 m=1
XM100 iovss gate pad iovss sg13_hv_nmos w=4.4u l=0.6u ng=1 m=1
XM101 iovss gate pad iovss sg13_hv_nmos w=4.4u l=0.6u ng=1 m=1
XM102 iovss gate pad iovss sg13_hv_nmos w=4.4u l=0.6u ng=1 m=1
XM103 iovss gate pad iovss sg13_hv_nmos w=4.4u l=0.6u ng=1 m=1
XM104 iovss gate pad iovss sg13_hv_nmos w=4.4u l=0.6u ng=1 m=1
XM105 iovss gate pad iovss sg13_hv_nmos w=4.4u l=0.6u ng=1 m=1
XM106 iovss gate pad iovss sg13_hv_nmos w=4.4u l=0.6u ng=1 m=1
XM107 iovss gate pad iovss sg13_hv_nmos w=4.4u l=0.6u ng=1 m=1
XM108 iovss gate pad iovss sg13_hv_nmos w=4.4u l=0.6u ng=1 m=1
XM109 iovss gate pad iovss sg13_hv_nmos w=4.4u l=0.6u ng=1 m=1
XM110 iovss gate pad iovss sg13_hv_nmos w=4.4u l=0.6u ng=1 m=1
XM111 iovss gate pad iovss sg13_hv_nmos w=4.4u l=0.6u ng=1 m=1
XM112 iovss gate pad iovss sg13_hv_nmos w=4.4u l=0.6u ng=1 m=1
XM113 iovss gate pad iovss sg13_hv_nmos w=4.4u l=0.6u ng=1 m=1
XM114 iovss gate pad iovss sg13_hv_nmos w=4.4u l=0.6u ng=1 m=1
XM115 iovss gate pad iovss sg13_hv_nmos w=4.4u l=0.6u ng=1 m=1
XM116 iovss gate pad iovss sg13_hv_nmos w=4.4u l=0.6u ng=1 m=1
XM117 iovss gate pad iovss sg13_hv_nmos w=4.4u l=0.6u ng=1 m=1
XM118 iovss gate pad iovss sg13_hv_nmos w=4.4u l=0.6u ng=1 m=1
XM119 iovss gate pad iovss sg13_hv_nmos w=4.4u l=0.6u ng=1 m=1
XM120 iovss gate pad iovss sg13_hv_nmos w=4.4u l=0.6u ng=1 m=1
XM121 iovss gate pad iovss sg13_hv_nmos w=4.4u l=0.6u ng=1 m=1
XM122 iovss gate pad iovss sg13_hv_nmos w=4.4u l=0.6u ng=1 m=1
XM123 iovss gate pad iovss sg13_hv_nmos w=4.4u l=0.6u ng=1 m=1
XM124 iovss gate pad iovss sg13_hv_nmos w=4.4u l=0.6u ng=1 m=1
XM125 iovss gate pad iovss sg13_hv_nmos w=4.4u l=0.6u ng=1 m=1
XM126 iovss gate pad iovss sg13_hv_nmos w=4.4u l=0.6u ng=1 m=1
XM127 iovss gate pad iovss sg13_hv_nmos w=4.4u l=0.6u ng=1 m=1
XM128 iovss gate pad iovss sg13_hv_nmos w=4.4u l=0.6u ng=1 m=1
XM129 iovss gate pad iovss sg13_hv_nmos w=4.4u l=0.6u ng=1 m=1
XM130 iovss gate pad iovss sg13_hv_nmos w=4.4u l=0.6u ng=1 m=1
XM131 iovss gate pad iovss sg13_hv_nmos w=4.4u l=0.6u ng=1 m=1
XM132 iovss gate pad iovss sg13_hv_nmos w=4.4u l=0.6u ng=1 m=1
XM133 iovss gate pad iovss sg13_hv_nmos w=4.4u l=0.6u ng=1 m=1
XM134 iovss gate pad iovss sg13_hv_nmos w=4.4u l=0.6u ng=1 m=1
XM135 iovss gate pad iovss sg13_hv_nmos w=4.4u l=0.6u ng=1 m=1
XM136 iovss gate pad iovss sg13_hv_nmos w=4.4u l=0.6u ng=1 m=1
XM137 iovss gate pad iovss sg13_hv_nmos w=4.4u l=0.6u ng=1 m=1
XM138 iovss gate pad iovss sg13_hv_nmos w=4.4u l=0.6u ng=1 m=1
XM139 iovss gate pad iovss sg13_hv_nmos w=4.4u l=0.6u ng=1 m=1
XM140 iovss gate pad iovss sg13_hv_nmos w=4.4u l=0.6u ng=1 m=1
XM141 iovss gate pad iovss sg13_hv_nmos w=4.4u l=0.6u ng=1 m=1
XM142 iovss gate pad iovss sg13_hv_nmos w=4.4u l=0.6u ng=1 m=1
XM143 iovss gate pad iovss sg13_hv_nmos w=4.4u l=0.6u ng=1 m=1
XM144 iovss gate pad iovss sg13_hv_nmos w=4.4u l=0.6u ng=1 m=1
XM145 iovss gate pad iovss sg13_hv_nmos w=4.4u l=0.6u ng=1 m=1
XM146 iovss gate pad iovss sg13_hv_nmos w=4.4u l=0.6u ng=1 m=1
XM147 iovss gate pad iovss sg13_hv_nmos w=4.4u l=0.6u ng=1 m=1
XM148 iovss gate pad iovss sg13_hv_nmos w=4.4u l=0.6u ng=1 m=1
XM149 iovss gate pad iovss sg13_hv_nmos w=4.4u l=0.6u ng=1 m=1
XM150 iovss gate pad iovss sg13_hv_nmos w=4.4u l=0.6u ng=1 m=1
XM151 iovss gate pad iovss sg13_hv_nmos w=4.4u l=0.6u ng=1 m=1
XM152 iovss gate pad iovss sg13_hv_nmos w=4.4u l=0.6u ng=1 m=1
XM153 iovss gate pad iovss sg13_hv_nmos w=4.4u l=0.6u ng=1 m=1
XM154 iovss gate pad iovss sg13_hv_nmos w=4.4u l=0.6u ng=1 m=1
XM155 iovss gate pad iovss sg13_hv_nmos w=4.4u l=0.6u ng=1 m=1
XM156 iovss gate pad iovss sg13_hv_nmos w=4.4u l=0.6u ng=1 m=1
XM157 iovss gate pad iovss sg13_hv_nmos w=4.4u l=0.6u ng=1 m=1
XM158 iovss gate pad iovss sg13_hv_nmos w=4.4u l=0.6u ng=1 m=1
XM159 iovss gate pad iovss sg13_hv_nmos w=4.4u l=0.6u ng=1 m=1
XM160 iovss gate pad iovss sg13_hv_nmos w=4.4u l=0.6u ng=1 m=1
XM161 iovss gate pad iovss sg13_hv_nmos w=4.4u l=0.6u ng=1 m=1
XM162 iovss gate pad iovss sg13_hv_nmos w=4.4u l=0.6u ng=1 m=1
XM163 iovss gate pad iovss sg13_hv_nmos w=4.4u l=0.6u ng=1 m=1
XM164 iovss gate pad iovss sg13_hv_nmos w=4.4u l=0.6u ng=1 m=1
XM165 iovss gate pad iovss sg13_hv_nmos w=4.4u l=0.6u ng=1 m=1
XM166 iovss gate pad iovss sg13_hv_nmos w=4.4u l=0.6u ng=1 m=1
XM167 iovss gate pad iovss sg13_hv_nmos w=4.4u l=0.6u ng=1 m=1
XM168 iovss gate pad iovss sg13_hv_nmos w=4.4u l=0.6u ng=1 m=1
XM169 iovss gate pad iovss sg13_hv_nmos w=4.4u l=0.6u ng=1 m=1
XM170 iovss gate pad iovss sg13_hv_nmos w=4.4u l=0.6u ng=1 m=1
XM171 iovss gate pad iovss sg13_hv_nmos w=4.4u l=0.6u ng=1 m=1
XM172 iovss gate pad iovss sg13_hv_nmos w=4.4u l=0.6u ng=1 m=1
XD1 iovss gate dantenna l=0.48u w=0.48u
.ends


* expanding   symbol:  sg13g2_DCNDiode.sym # of pins=3
** sym_path: /home/designer/designs/libs/sg13g2_io/xschem/sg13g2_DCNDiode.sym
** sch_path: /home/designer/designs/libs/sg13g2_io/xschem/sg13g2_DCNDiode.sch
.subckt sg13g2_DCNDiode cathode anode guard
*.PININFO cathode:B anode:B guard:B
XD1 anode cathode dantenna l=1.26u w=27.78u
XD2 anode cathode dantenna l=1.26u w=27.78u
* noconn guard
.ends


* expanding   symbol:  sg13g2_DCPDiode.sym # of pins=3
** sym_path: /home/designer/designs/libs/sg13g2_io/xschem/sg13g2_DCPDiode.sym
** sch_path: /home/designer/designs/libs/sg13g2_io/xschem/sg13g2_DCPDiode.sch
.subckt sg13g2_DCPDiode cathode anode guard
*.PININFO cathode:B anode:B guard:B
XD1 anode cathode dpantenna l=1.26u w=27.78u
XD2 anode cathode dpantenna l=1.26u w=27.78u
* noconn guard
.ends


* expanding   symbol:  sg13g2_LevelDown.sym # of pins=6
** sym_path: /home/designer/designs/libs/sg13g2_io/xschem/sg13g2_LevelDown.sym
** sch_path: /home/designer/designs/libs/sg13g2_io/xschem/sg13g2_LevelDown.sch
.subckt sg13g2_LevelDown vdd iovdd core pad iovss vss
*.PININFO vdd:B vss:B iovdd:B iovss:B pad:B core:B
XM1 vss net2 net1 vss sg13_hv_nmos w=2.65u l=0.45u ng=1 m=1
XM2 net1 net2 vdd vdd sg13_hv_pmos w=4.65u l=0.45u ng=1 m=1
XM3 vss net1 core vss sg13_lv_nmos w=2.75u l=0.13u ng=1 m=1
XM4 core net1 vdd vdd sg13_lv_pmos w=4.75u l=0.13u ng=1 m=1
x1 iovdd pad net2 iovss sg13g2_SecondaryProtection
.ends


* expanding   symbol:  sg13g2_Clamp_N20N0D.sym # of pins=3
** sym_path: /home/designer/designs/libs/sg13g2_io/xschem/sg13g2_Clamp_N20N0D.sym
** sch_path: /home/designer/designs/libs/sg13g2_io/xschem/sg13g2_Clamp_N20N0D.sch
.subckt sg13g2_Clamp_N20N0D pad iovdd iovss
*.PININFO iovss:B pad:B iovdd:B
XM1 iovss net1 pad iovss sg13_hv_nmos w=4.4u l=0.6u ng=1 m=1
XM2 pad net1 iovss iovss sg13_hv_nmos w=4.4u l=0.6u ng=1 m=1
XM3 iovss net1 pad iovss sg13_hv_nmos w=4.4u l=0.6u ng=1 m=1
XM4 pad net1 iovss iovss sg13_hv_nmos w=4.4u l=0.6u ng=1 m=1
XM5 iovss net1 pad iovss sg13_hv_nmos w=4.4u l=0.6u ng=1 m=1
XM6 pad net1 iovss iovss sg13_hv_nmos w=4.4u l=0.6u ng=1 m=1
XM7 iovss net1 pad iovss sg13_hv_nmos w=4.4u l=0.6u ng=1 m=1
XM8 pad net1 iovss iovss sg13_hv_nmos w=4.4u l=0.6u ng=1 m=1
XM9 iovss net1 pad iovss sg13_hv_nmos w=4.4u l=0.6u ng=1 m=1
XM10 pad net1 iovss iovss sg13_hv_nmos w=4.4u l=0.6u ng=1 m=1
XM11 iovss net1 pad iovss sg13_hv_nmos w=4.4u l=0.6u ng=1 m=1
XM12 pad net1 iovss iovss sg13_hv_nmos w=4.4u l=0.6u ng=1 m=1
XM13 iovss net1 pad iovss sg13_hv_nmos w=4.4u l=0.6u ng=1 m=1
XM14 pad net1 iovss iovss sg13_hv_nmos w=4.4u l=0.6u ng=1 m=1